LIG
     RDKit          3D

 30 33  0  0  0  0  0  0  0  0999 V2000
   33.6700   34.8100   23.4500 C   0  0  0  0  0  0  0  0  0  0  0  0
   34.8500   39.2100   21.6200 C   0  0  0  0  0  0  0  0  0  0  0  0
   33.0500   38.9400   26.0900 C   0  0  1  0  0  0  0  0  0  0  0  0
   31.5900   39.4100   26.2500 C   0  0  0  0  0  0  0  0  0  0  0  0
   34.0400   38.9800   23.7400 C   0  0  0  0  0  0  0  0  0  0  0  0
   34.5500   34.9800   21.1800 C   0  0  0  0  0  0  0  0  0  0  0  0
   35.1700   35.7800   20.1300 C   0  0  0  0  0  0  0  0  0  0  0  0
   35.2500   37.1300   20.2300 C   0  0  0  0  0  0  0  0  0  0  0  0
   34.8000   37.8100   21.4400 C   0  0  0  0  0  0  0  0  0  0  0  0
   34.3100   37.0400   22.5100 C   0  0  0  0  0  0  0  0  0  0  0  0
   33.6700   39.5700   24.9300 N   0  0  0  0  0  0  0  0  0  0  0  0
   34.3300   33.7800   21.0200 O   0  0  0  0  0  0  0  0  0  0  0  0
   34.2100   35.6200   22.3400 N   0  0  0  0  0  0  0  0  0  0  0  0
   33.9300   37.6500   23.6600 N   0  0  0  0  0  0  0  0  0  0  0  0
   34.4800   39.7900   22.7800 N   0  0  0  0  0  0  0  0  0  0  0  0
   33.8700   39.2400   27.3500 C   0  0  0  0  0  0  0  0  0  0  0  0
   30.7400   38.9500   25.1600 N   0  0  0  0  0  0  0  0  0  0  0  0
   30.2600   39.7700   24.2100 N   0  0  0  0  0  0  0  0  0  0  0  0
   29.6000   38.8900   23.4700 C   0  0  0  0  0  0  0  0  0  0  0  0
   29.6600   37.6200   23.9400 N   0  0  0  0  0  0  0  0  0  0  0  0
   30.3700   37.6600   25.0200 N   0  0  0  0  0  0  0  0  0  0  0  0
   35.6600   35.1800   19.0100 O   0  0  0  0  0  0  0  0  0  0  0  0
   37.2600   38.0600   16.4500 C   0  0  0  0  0  0  0  0  0  0  0  0
   38.0500   37.5200   17.4800 C   0  0  0  0  0  0  0  0  0  0  0  0
   37.5100   36.5500   18.3500 C   0  0  0  0  0  0  0  0  0  0  0  0
   36.1900   36.1200   18.1700 C   0  0  0  0  0  0  0  0  0  0  0  0
   35.4000   36.6500   17.1400 C   0  0  0  0  0  0  0  0  0  0  0  0
   35.9400   37.6200   16.2800 C   0  0  0  0  0  0  0  0  0  0  0  0
   37.7700   38.9800   15.6300 F   0  0  0  0  0  0  0  0  0  0  0  0
   38.2600   36.0400   19.3200 F   0  0  0  0  0  0  0  0  0  0  0  0
  1 13  1  0
  2  9  2  0
  2 15  1  0
  3  4  1  0
  3 11  1  0
  3 16  1  1
  4 17  1  0
  5 11  1  0
  5 14  1  0
  5 15  2  0
  6  7  1  0
  6 12  2  0
  6 13  1  0
  7  8  2  0
  7 22  1  0
  8  9  1  0
  9 10  1  0
 10 13  1  0
 10 14  2  0
 17 18  1  0
 17 21  1  0
 18 19  2  0
 19 20  1  0
 20 21  2  0
 22 26  1  0
 23 24  2  0
 23 28  1  0
 23 29  1  0
 24 25  1  0
 25 26  2  0
 25 30  1  0
 26 27  1  0
 27 28  2  0
M  END
$$$$
