LIG
     RDKit          3D

 27 30  0  0  0  0  0  0  0  0999 V2000
    1.4290   16.3510   20.1930 C   0  0  0  0  0  0  0  0  0  0  0  0
    4.6910   20.4260   19.8750 O   0  0  0  0  0  0  0  0  0  0  0  0
    4.9960   19.9120   18.8110 C   0  0  0  0  0  0  0  0  0  0  0  0
    2.3420   16.5610   21.2230 C   0  0  0  0  0  0  0  0  0  0  0  0
    2.1180   15.9990   22.4760 C   0  0  0  0  0  0  0  0  0  0  0  0
    6.2360   20.0440   18.3050 N   0  0  0  0  0  0  0  0  0  0  0  0
    7.2620   20.8210   18.9990 C   0  0  0  0  0  0  0  0  0  0  0  0
    1.0000   15.1910   22.6860 C   0  0  0  0  0  0  0  0  0  0  0  0
    8.5790   20.5230   18.2740 C   0  0  0  0  0  0  0  0  0  0  0  0
    0.1010   14.9520   21.6290 C   0  0  0  0  0  0  0  0  0  0  0  0
    9.0270   21.8680   17.6800 C   0  0  0  0  0  0  0  0  0  0  0  0
    0.3180   15.5400   20.3870 C   0  0  0  0  0  0  0  0  0  0  0  0
    7.7470   22.7200   17.5560 C   0  0  0  0  0  0  0  0  0  0  0  0
   -1.1660   14.1180   21.8590 C   0  0  1  0  0  0  0  0  0  0  0  0
    6.9960   22.3320   18.8400 C   0  0  0  0  0  0  0  0  0  0  0  0
    4.0010   19.1140   18.0430 C   0  0  0  0  0  0  0  0  0  0  0  0
    0.7670   14.6410   23.9760 N   0  0  0  0  0  0  0  0  0  0  0  0
   -0.9120   13.1080   23.0060 C   0  0  0  0  0  0  0  0  0  0  0  0
    4.3080   18.5440   16.9990 O   0  0  0  0  0  0  0  0  0  0  0  0
    2.7590   19.0550   18.5540 N   0  0  0  0  0  0  0  0  0  0  0  0
    1.6830   18.2960   17.9140 C   0  0  0  0  0  0  0  0  0  0  0  0
   -2.2460   14.9880   22.3090 O   0  0  0  0  0  0  0  0  0  0  0  0
   -2.1130   15.7370   23.5560 C   0  0  0  0  0  0  0  0  0  0  0  0
    1.1280   17.2800   18.8810 C   0  0  0  0  0  0  0  0  0  0  0  0
   -1.6190   14.8550   24.7260 C   0  0  2  0  0  0  0  0  0  0  0  0
   -0.4840   13.8970   24.2820 C   0  0  2  0  0  0  0  0  0  0  0  0
   -2.7200   14.0920   25.2290 O   0  0  0  0  0  0  0  0  0  0  0  0
  1  4  2  0
  1 12  1  0
  1 24  1  0
  2  3  2  0
  3  6  1  0
  3 16  1  0
  4  5  1  0
  5  8  2  0
  6  7  1  0
  7  9  1  0
  7 15  1  0
  8 10  1  0
  8 17  1  0
  9 11  1  0
 10 12  2  0
 10 14  1  0
 11 13  1  0
 13 15  1  0
 14 18  1  0
 14 22  1  1
 16 19  2  0
 16 20  1  0
 26 17  1  6
 18 26  1  0
 20 21  1  0
 21 24  1  0
 22 23  1  0
 23 25  1  0
 25 26  1  0
 25 27  1  6
M  END
$$$$
