LIG
     RDKit          3D

 31 34  0  0  0  0  0  0  0  0999 V2000
   29.8990   18.9620    1.7240 C   0  0  0  0  0  0  0  0  0  0  0  0
   25.2040   15.1160    1.3930 C   0  0  0  0  0  0  0  0  0  0  0  0
   25.6820   14.9300   -1.6940 C   0  0  0  0  0  0  0  0  0  0  0  0
   29.2330   13.1180   -5.4650 C   0  0  0  0  0  0  0  0  0  0  0  0
   30.6490   11.1240   -4.6870 C   0  0  0  0  0  0  0  0  0  0  0  0
   28.5430   11.7420   -3.5100 C   0  0  0  0  0  0  0  0  0  0  0  0
   32.1090   13.8640   -4.7140 O   0  0  0  0  0  0  0  0  0  0  0  0
   24.8240   18.4760   -6.7700 Cl  0  0  0  0  0  0  0  0  0  0  0  0
   25.5320   17.9640   -4.2190 C   0  0  0  0  0  0  0  0  0  0  0  0
   27.0320   17.1100   -5.8680 C   0  0  0  0  0  0  0  0  0  0  0  0
   26.3510   17.4470   -3.2100 C   0  0  0  0  0  0  0  0  0  0  0  0
   27.8570   16.6090   -4.8670 C   0  0  0  0  0  0  0  0  0  0  0  0
   31.8980   14.9640   -2.5760 C   0  0  0  0  0  0  0  0  0  0  0  0
   29.6620   16.0420   -2.8280 N   0  0  0  0  0  0  0  0  0  0  0  0
   31.8170   18.1280    0.2830 N   0  0  0  0  0  0  0  0  0  0  0  0
   32.0440   17.2500   -0.6250 N   0  0  0  0  0  0  0  0  0  0  0  0
   30.4000   13.2470   -3.3840 O   0  0  0  0  0  0  0  0  0  0  0  0
   27.8100   16.3310    1.4560 S   0  0  0  0  0  0  0  0  0  0  0  0
   31.4750   13.9720   -3.6650 C   0  0  0  0  0  0  0  0  0  0  0  0
   28.3750   16.2200   -2.4890 C   0  0  0  0  0  0  0  0  0  0  0  0
   25.8800   17.8220   -5.5420 C   0  0  0  0  0  0  0  0  0  0  0  0
   30.5340   18.0500    0.6710 C   0  0  0  0  0  0  0  0  0  0  0  0
   27.5220   16.7650   -3.5120 C   0  0  0  0  0  0  0  0  0  0  0  0
   26.4600   15.6250    0.6460 C   0  0  0  0  0  0  0  0  0  0  0  0
   26.6960   15.5570   -0.7220 C   0  0  0  0  0  0  0  0  0  0  0  0
   30.8940   16.5810   -0.8330 C   0  0  0  0  0  0  0  0  0  0  0  0
   27.9310   16.1250   -1.1370 C   0  0  0  0  0  0  0  0  0  0  0  0
   28.6600   16.6020   -0.0300 C   0  0  0  0  0  0  0  0  0  0  0  0
   30.6460   15.4630   -1.8660 C   0  0  2  0  0  0  0  0  0  0  0  0
   29.9320   17.0880   -0.0610 N   0  0  0  0  0  0  0  0  0  0  0  0
   29.7310   12.3020   -4.2990 C   0  0  0  0  0  0  0  0  0  0  0  0
  1 22  1  0
  2 24  1  0
  3 25  1  0
  4 31  1  0
  5 31  1  0
  6 31  1  0
  7 19  2  0
  8 21  1  0
  9 11  2  0
  9 21  1  0
 10 12  1  0
 10 21  2  0
 11 23  1  0
 12 23  2  0
 13 19  1  0
 29 13  1  6
 14 20  2  0
 14 29  1  0
 15 16  1  0
 15 22  2  0
 16 26  2  0
 17 19  1  0
 17 31  1  0
 18 24  1  0
 18 28  1  0
 20 23  1  0
 20 27  1  0
 22 30  1  0
 24 25  2  0
 25 27  1  0
 26 29  1  0
 26 30  1  0
 27 28  2  0
 28 30  1  0
M  END
$$$$
