LIG
     RDKit          3D

 15 17  0  0  0  0  0  0  0  0999 V2000
    1.6450   16.9080   18.9840 F   0  0  0  0  0  0  0  0  0  0  0  0
   -2.7200   14.0920   25.2290 O   0  0  0  0  0  0  0  0  0  0  0  0
   -2.2460   14.9880   22.3090 O   0  0  0  0  0  0  0  0  0  0  0  0
    0.7670   14.6410   23.9760 N   0  0  0  0  0  0  0  0  0  0  0  0
   -2.1130   15.7370   23.5560 C   0  0  0  0  0  0  0  0  0  0  0  0
    2.3420   16.5610   21.2230 C   0  0  0  0  0  0  0  0  0  0  0  0
    2.1180   15.9990   22.4760 C   0  0  0  0  0  0  0  0  0  0  0  0
    0.3180   15.5400   20.3870 C   0  0  0  0  0  0  0  0  0  0  0  0
   -0.9120   13.1080   23.0060 C   0  0  0  0  0  0  0  0  0  0  0  0
    1.4290   16.3510   20.1930 C   0  0  0  0  0  0  0  0  0  0  0  0
   -1.6190   14.8550   24.7260 C   0  0  2  0  0  0  0  0  0  0  0  0
   -1.1660   14.1180   21.8590 C   0  0  2  0  0  0  0  0  0  0  0  0
   -0.4840   13.8970   24.2820 C   0  0  2  0  0  0  0  0  0  0  0  0
    1.0000   15.1910   22.6860 C   0  0  0  0  0  0  0  0  0  0  0  0
    0.1010   14.9520   21.6290 C   0  0  0  0  0  0  0  0  0  0  0  0
  1 10  1  0
 11  2  1  6
  3  5  1  0
 12  3  1  1
 13  4  1  6
  4 14  1  0
  5 11  1  0
  6  7  1  0
  6 10  2  0
  7 14  2  0
  8 10  1  0
  8 15  2  0
  9 12  1  0
  9 13  1  0
 11 13  1  0
 12 15  1  0
 14 15  1  0
M  END
$$$$
